ra-optimisation/ra-optimisation-api/src/test/resources/networkTest.uct
##C 2007.05.01
Date of situation : 2019/03/11 08:38
##N
##ZFR
FFR1AA1  FR1          0 2 400.00 1800.00 0.00000 -3000.0 0.00000 0.00000 -5000.0 0.00000 -5000.0
##ZBE
BBE1AA1  BE1          0 2 400.00 2200.00 0.00000 -1000.0 0.00000 0.00000 -5000.0 0.00000 -5000.0
BBE2AA1  BE2          0 0 400.00 0000.00 0.00000 -0000.0 0.00000 0000.00 -0000.0 0000.00 -0000.0

##L
FFR1AA1  BBE1AA1  1 0 0.0000 10.000 0.000000    722
FFR1AA1  BBE2AA1  1 0 0.0000 5.0000 0.000000    722

##T
BBE1AA1  BBE2AA1  1 0 400.0 400.0 100.0 0.0000 5.0000 0.000000 0.0    5000   PST

##R
BBE1AA1  BBE2AA1  1                    -0.24 90.00  6 -4        SYMM


